/*--------------------------------*- C++ -*----------------------------------*\
  =========                 |
  \\      /  F ield         | OpenFOAM: The Open Source CFD Toolbox
   \\    /   O peration     | Website:  https://openfoam.org
    \\  /    A nd           | Version:  8
     \\/     M anipulation  |
\*---------------------------------------------------------------------------*/
FoamFile
{
    version     2.0;
    format      ascii;
    class       polyBoundaryMesh;
    location    "constant/polyMesh";
    object      boundary;
}
// * * * * * * * * * * * * * * * * * * * * * * * * * * * * * * * * * * * * * //

5
(
    inlet
    {
        type            patch;
        nFaces          30;
        startFace       21594;
    }
    outlet
    {
        type            patch;
        nFaces          30;
        startFace       21624;
    }
    wall
    {
        type            wall;
        inGroups        List<word> 1(wall);
        nFaces          552;
        startFace       21654;
    }
    obstacle
    {
        type            wall;
        inGroups        List<word> 1(wall);
        nFaces          120;
        startFace       22206;
    }
    frontAndBack
    {
        type            empty;
        inGroups        List<word> 1(empty);
        nFaces          21960;
        startFace       22326;
    }
)

// ************************************************************************* //
